26
	Energy:      18.8147360
C         -8.75897        5.05244       -0.69913
C         -8.73755        3.71632       -0.64688
C         -7.51734        2.95434       -0.54437
C         -7.49879        1.62196       -0.42991
H         -9.70322        5.58561       -0.74420
H         -7.85116        5.64607       -0.66605
H         -9.67867        3.17065       -0.65145
H         -6.57612        3.49958       -0.53485
H         -8.40914        1.03179       -0.40510
H         -6.55740        1.09151       -0.32881
C         -8.91653        4.91132        2.74127
C         -8.84751        3.58482        2.89322
C         -7.59919        2.87822        3.05198
C         -7.52730        1.55671        3.23956
H         -9.87552        5.40436        2.62154
H         -8.02905        5.53618        2.72707
H         -9.76621        3.00318        2.89696
H         -6.68033        3.45976        3.01270
H         -8.41333        0.93165        3.28297
H         -6.56410        1.06855        3.34878
C         -8.09213        5.28397        6.10291
C         -8.28544        3.97877        6.31128
H         -7.09202        5.70203        6.06198
H         -8.93168        5.95091        5.93471
H         -7.44778        3.30100        6.43957
H         -9.28447        3.55441        6.31123
