10
	Energy:       4.7872388
C         -8.78861        5.07321       -0.00000
C         -8.76374        3.73571       -0.00000
C         -7.53922        2.97467        0.00000
C         -7.51346        1.63698        0.00000
H         -9.73438        5.60596       -0.00000
H         -7.88133        5.66880       -0.00000
H         -9.70429        3.18869        0.00000
H         -6.59878        3.52191       -0.00000
H         -8.42043        1.04094        0.00000
H         -6.56735        1.10485        0.00000
