16
	Energy:      13.0509176
C         -8.91546        5.22111       -0.41435
C         -8.80690        3.91521       -0.68092
C         -7.55965        3.19610       -0.59194
C         -7.46506        1.87693       -0.79204
H         -9.87810        5.71821       -0.48179
H         -8.06316        5.82262       -0.11495
H         -9.69688        3.35578       -0.96215
H         -6.66447        3.75806       -0.33468
H         -8.32996        1.26610       -1.03100
H         -6.50907        1.37198       -0.69762
C         -9.29151        2.68600        2.60359
C         -9.20682        1.37659        2.35391
H         -8.47080        3.22196        3.06927
H        -10.17025        3.25517        2.31763
H         -8.31575        0.81527        2.61562
H        -10.01672        0.84766        1.86244
